**$ENCRYPTED_LIB
**$INTERFACE
*$
* LM3409
*****************************************************************************
* (C) Copyright 2012 Texas Instruments Incorporated. All rights reserved.                                            
*****************************************************************************
** This model is designed as an aid for customers of Texas Instruments.
** TI and its licensors and suppliers make no warranties, either expressed
** or implied, with respect to this model, including the warranties of 
** merchantability or fitness for a particular purpose.  The model is
** provided solely on an "as is" basis.  The entire risk as to its quality
** and performance is with the customer
*****************************************************************************
*
* This model is subject to change without notice. Texas Instruments
* Incorporated is not responsible for updating this model.
*
*****************************************************************************
*
** Released by: WEBENCH Design Center, Texas Instruments Inc.
* Part: LM3409
* Date: 26OCT2012
* Model Type: TRANSIENT
* Simulator: PSPICE
* Simulator Version: 16.2.0.p001
* EVM Order Number: 
* EVM Users Guide: SNVA391C - November 20, 2009
* Datasheet: SNVS602I - February 14, 2012
*
* Model Version: Final 1.00
*
*****************************************************************************
*
* Updates:
*
* Final 1.00
* Release to Web.
*
*****************************************************************************
.SUBCKT LM3409_TRANS UVLO IADJ EN COFF GND PGATE CSN CSP VCC VIN DAP
$CDNENCSTART
eee8c5c7a2bc4b01f045f303678664e7916da0bae22e8cb0bba041dd67c69ce448ea70148a9ac1670c8926c1ac5057c8ccfcd77bf87ca9dc9a16ea832ee8d31d
1fb979166f71c66fa321affb12c4581872432e78391458fca8a5cd93fed6b05fd1fab7b32d8200415fb80afd0157edaf97b85982139cec8d2527213fbeb7a4bf
de4b7cdb271db57180cd6d9b55a7e44573d85d03d3251e92e41b8f18ae60172b47f9797193c31ddd0b186e525543bd01c2356fa0b0fe3ea99a16ea832ee8d31d
1992edd6cdc951b7143db5970f7f493967adef04f74c2efbac61fd4a84937cc8194cfd19f0eb88d721632eda18b27f679696dcb72b93e18eca6c8517f953d3c3
8d4378728875d4775fdc528451c237462e246349d39fc44efc3039ea769349d90f6b5180c1835b24a8a5cd93fed6b05fd1fab7b32d82004142ab77d1acbfe47c
341a4b89cd54856bbd70349c34458454194cfd19f0eb88d721632eda18b27f679696dcb72b93e18e440d0cfa79b8970d09c1b791e1d8a842a9e889bfe4ce95f1
e85f3e749cb88054c361ccac760a2a9d3043a8f54fa32cd73953de0f83287caabf1ee911780421dd4c7ac3b58eedcc8a43ced59c534542b3114069b8c658f93e
8d4378728875d477979a1449896df5212e246349d39fc44e6352aecd78c2bb54daf6279e60479f511d58ec7b723e74ebb2fd36071c565e5123820783141dc8b5
431658fa9c087be4b798affa06f526122a20de0778a606ebfd3e697b59bc0ee4e87602cb5d48c30c429a0d335ef01d6eca20b673e26f71b450b5211a6d3017f1
3c83498110316b75e573f926e29c724c8cd5b0835e4e00870d92e4cef26d748bb3c6fb35aa7a76f0477f963edf81415acfe9e1128690b5d163dec0bc17c85de7
0cc846ab151d0d7172de0ca4656c0ac27b0412a2887d48ee4b346a7efa71583eb79468370d9e2d000686de4c27e96438140248d3ea16bbc498cc2146ef77d763
dfb2be06b036d4626a06e5b4b0fa53877b0412a2887d48ee4b346a7efa71583eb79468370d9e2d000686de4c27e96438140248d3ea16bbc498cc2146ef77d763
76a39057684af1c67086f2766ef5f026a8a5cd93fed6b05fd1fab7b32d8200415fb80afd0157edaf97b85982139cec8d6c55ecbc9c6f58bb2bc0ed6f39d7dca0
f0f3fabcbbae960d9753f55f3deb44e40d795eeb48db96bbcc8e12a04c3e6768194cfd19f0eb88d721632eda18b27f679696dcb72b93e18eca6c8517f953d3c3
112c6cc6d2136d437365509cbf051feaa8a5cd93fed6b05fd1fab7b32d8200415fb80afd0157edaf97b85982139cec8d6c55ecbc9c6f58bb2bc0ed6f39d7dca0
ac71a89bf1b9cf9ee8196843f2b8131d194cfd19f0eb88d721632eda18b27f679696dcb72b93e18e440d0cfa79b8970d09c1b791e1d8a842a9e889bfe4ce95f1
d73aba816c626f34ca2860867f82e42ae5d5c6a1b5a1b63a4c7ac3b58eedcc8a43ced59c534542b3267b5b3e00655414171e8d7d41e482a3301532548280e921
cec3636eff49101d048cfac24afbbda72715583d32c7018e063483dc2aa96c33dbe86c1f70c2d0d36d3b1fd1c0241053da770024498d63d3876ff7b656d736da
68f55170f830b8f4a29d6719592369dc8cd5b0835e4e00870d92e4cef26d748bb3c6fb35aa7a76f0477f963edf81415acfe9e1128690b5d163dec0bc17c85de7
53d865d48f2dc3a65e8b0dc8bfa36eaaf45869bdc472737dc4cec21fdeb9e103db246d6b3d9412ea1d58ec7b723e74ebb2fd36071c565e5123820783141dc8b5
dd3e4c24cae69d2881ad161d254563da7bb9d153da05aa8d8cd5b0835e4e00870d92e4cef26d748bb3c6fb35aa7a76f0477f963edf81415a2a2ec5080cca0025
25d0384f7f5ad0e7cc0d638e9131480f80220e9a74126a2bdbec8faba64d017e8cd5b0835e4e00870d92e4cef26d748bb3c6fb35aa7a76f0c326295adad3ac65
f9bab44676fec1f3268cd6aae9d1e4b3938b2c0d805ce51099448ccca394e5f7c2a465b43e329fcc5e907deffd12c5ffdd06c2baef735cae846b60a10dd644ec
0e817ddeff000ea070dac094dbbea807fad236e7b2a17770bf5b0ad4bb1fb64ec15904a4d79113eddbe86c1f70c2d0d36d3b1fd1c024105367c9f78021ed4b24
970437ab15a31256e8431e7f0cbf02db3bf4caee5a31213216ac4cea18397b8afdac59e3b55d1f86194cfd19f0eb88d721632eda18b27f67c7158fa86f7e2c41
b382da13e469cbab50e91b816fec9e3a1ec26098a2daf64700e9b1218e21dff8d6bd033aedcf67948dcea2cdd2d3d5cc9783ae8e4821c68fb9549840541e7e65
91f6807f2e1a77d484dabdbf113c5c00f2de94354d5ed7678cd5b0835e4e00870d92e4cef26d748bb3c6fb35aa7a76f0477f963edf81415a2a2ec5080cca0025
197ebcc1e832a5d21d5ce2c7acd4996123d2ee71bd6a06c7dbe86c1f70c2d0d36d3b1fd1c0241053da770024498d63d38f2fca7de343acffaa188e393957f755
a278e7ffeca9151204dd685d8e1733112a130768201b05fbfcbf126c948fba7101406932a386c2e95ddf2542fde9cd16e1bc0547f32f0d8f7ccc0443c629ad57
06b36f9d1b57e7d8c7e1c53cc8bf310445a6054e5099f4922130faa44e5d02e4089f8c598d404754a6e3b351dafad5353c5fa6b68c35426976c03a7ef54c51e0
0db3420073a042373f7412ec9fe10d34a8a5cd93fed6b05fd1fab7b32d8200415fb80afd0157edaf97b85982139cec8d6c55ecbc9c6f58bb2bc0ed6f39d7dca0
5adbe6c01378f67511d854cb5857675f4f608f06f2377cf3d23cee6b8d2bb5fbd70fc4cb6e75c99f4c7ac3b58eedcc8a43ced59c534542b3114069b8c658f93e
4c775cd67b993a9aeb1cf2e5bbb0fac02130faa44e5d02e4089f8c598d404754a6e3b351dafad535b8c6b9cb6bfd79428cd5b0835e4e00877d1a8f287a0be54d
21f6a7727cbc834fe55ed34bf5c463e52d23d6c0e5da4f16ade77a11530821fc75963efd3ee34e16b032015482838020d09020c9eedb047d0c138f656e983247
da7014803087ba19a7922ea34e6b810ba8a5cd93fed6b05fd1fab7b32d8200415fb80afd0157edaf97b85982139cec8d6c55ecbc9c6f58bb2bc0ed6f39d7dca0
94fe95e5ba347b2ac632ed6fd8835a9f5785ba769cc7ab207117bfd6f5c3997bdbe86c1f70c2d0d36d3b1fd1c0241053da770024498d63d3876ff7b656d736da
1c782b2f75fdab53ccc6337818ce94910f37dcf7c25d5de63b224f34474901818cd5b0835e4e00870d92e4cef26d748bb3c6fb35aa7a76f0c326295adad3ac65
0bf0e3c0c004b2551b94de8785fc27e6dfbb3331afe05c2703272f5d3ec22b3c7b0412a2887d48ee4b346a7efa71583eb79468370d9e2d00642433d5567d96e8
43be4750f33c02be90dad422784cedb4b32a73753ee02963fdac59e3b55d1f86194cfd19f0eb88d721632eda18b27f679696dcb72b93e18eca6c8517f953d3c3
c4c80a0dbf4b5ea2390174dcbf9262873b999d6076d383aee23e87c37c128ffc7b0412a2887d48ee4b346a7efa71583eb79468370d9e2d00642433d5567d96e8
db2405ac12ca34ba5500331a213a8e2019b60807d9ac246c67ffb793c2a7ed8f292dac87b123adce570aaa5833d93316e7d82123c92337571ba67544fa493fca
408b6f8486452f4a9f769f92d9ee2a5252e659019812eb8365df0af3a8d8eb79173a925cd40d26898fad51fe9588e842b412069190dd1d2a76c03a7ef54c51e0
77f9c3591696e86d3351c1ef6d279ee019b60807d9ac246c67ffb793c2a7ed8f292dac87b123adce6508429b255a435e329bfc47381850c01ba67544fa493fca
e5006a0250bb4bab128318abfd7660678500ad9688a2ae098cd5b0835e4e00870d92e4cef26d748bb3c6fb35aa7a76f0477f963edf81415a2a2ec5080cca0025
01d5a63a71f2e04041a143e697fd9f52d5e1302d6e71d4f24c7ac3b58eedcc8a43ced59c534542b3267b5b3e00655414171e8d7d41e482a3301532548280e921
152d6d07f44625ac09cf2efd4d5695120f090d5b57717962fd3e697b59bc0ee4e87602cb5d48c30c429a0d335ef01d6eca20b673e26f71b450b5211a6d3017f1
5563fce72c1316c40b456884deff6fb915e5460f9730e47c8dcea2cdd2d3d5cc9783ae8e4821c68f7739e99dbba07b8388fb0bd6efe54418f61ba84783cb74cd
f2de94354d5ed7678cd5b0835e4e00870d92e4cef26d748bb3c6fb35aa7a76f0477f963edf81415acfe9e1128690b5d197ba678c3467874e93d3a40e7ec89bb7
1e97d17619bf92383d2077f3c35aa1bf82c5268c8a0d9a1b4e64b177a54766d5945dc435c974fffba8a5cd93fed6b05fd1fab7b32d82004142ab77d1acbfe47c
2588d5cf1134d38a5892642d3dcf870c89c7e8f50ae40d3860a188d940e604c11933952b4dcad44cb85d32572d4ef35bfed87e1a37f7d7e75b8435f66b8792d3
e8d6bdcf7ee5b70b194cfd19f0eb88d721632eda18b27f679696dcb72b93e18e440d0cfa79b8970d09c1b791e1d8a8422f0860f9e8e507debf66d6a8656a0128
5fdee9ea8bd4c0758a3c3a3457aebf4bc1f92c28658abf9caa72305c54d6d229dbe86c1f70c2d0d36d3b1fd1c0241053da770024498d63d3876ff7b656d736da
5d1dd2454f8b63b697006c2ec3acb590dbe86c1f70c2d0d36d3b1fd1c0241053da770024498d63d38f2fca7de343acff1c0c742e9af60b215e75efc526c883d5
c9f8cd1df6e28986ce80fca0a8a7e4c4194cfd19f0eb88d721632eda18b27f679696dcb72b93e18e440d0cfa79b8970d09c1b791e1d8a842a9e889bfe4ce95f1
$CDNENCFINISH
.ENDS LM3409_TRANS
*$ 
.SUBCKT 2N6845 1 2 3
* External Node Designations
* Node 1 -> Drain
* Node 2 -> Gate
* Node 3 -> Source
$CDNENCSTART
eee8c5c7a2bc4b01f045f303678664e7916da0bae22e8cb0bba041dd67c69ce448ea70148a9ac1670c8926c1ac5057c8ccfcd77bf87ca9dc9a16ea832ee8d31d
2a41df7204e67856d4e5eea2fc9a6e931118d9587e029ea79aaf4250da1056691d58ec7b723e74ebb2fd36071c565e51f0984ec5f547bad6935bfac095dba6da
2c82f61a3c71ea38f7ab4c110fce0cffebd75084735c9377515cd472a387d48fce1a15c2f2d8cbf7c989c683f869e33ca539cf2c0fc76b589d5b786b0a463070
61970fae8f34951490ec5b43fc92dc9dfcaeb979c5c6082a1320f2dfea7aa88e8cfb61267a669cc5a8a5cd93fed6b05fd1fab7b32d82004142ab77d1acbfe47c
362e7d1d3883a2bfe8e74e460878d6ee8cd5b0835e4e00870d92e4cef26d748bb3c6fb35aa7a76f0477f963edf81415acfe9e1128690b5d163dec0bc17c85de7
44753659f372695f9971e708c89445e6fd3e697b59bc0ee4e87602cb5d48c30c429a0d335ef01d6eca20b673e26f71b4c4107458e9f0ac10842ddc0dd2fb357b
2c82f61a3c71ea385b1bc9625ac4bb76b7c1f2b918240f2567eaf5c2dc3a0cc86cc5606842446f13ee384c929f9022415f1b43a11cf216beb5c160f702a9f1c0
66252b3ed558b72527e3c39b7ebc12b195bb905e7ad330d1b478f136ba6d8f06811d0e5167938961d71399e632db53126cae560bf6e46d8695a4bc8f73a9be4f
cf860532b3b227902881b8babdcc20d08cd5b0835e4e00870d92e4cef26d748bb3c6fb35aa7a76f0477f963edf81415acfe9e1128690b5d163dec0bc17c85de7
4dd9697edcabdd2d9b7cf6d08906e6968cd5b0835e4e00870d92e4cef26d748bb3c6fb35aa7a76f0477f963edf81415acfe9e1128690b5d163dec0bc17c85de7
38617d64fa30ec7daedb7b54b69278f7a8a5cd93fed6b05fd1fab7b32d8200415fb80afd0157edaf97b85982139cec8d6c55ecbc9c6f58bb2bc0ed6f39d7dca0
f708eb87d9c012d14e46dd92806239d24c7ac3b58eedcc8a43ced59c534542b3267b5b3e00655414171e8d7d41e482a3b13a1e57fd4f433329cf782ea2578d64
2c82f61a3c71ea385f64456bfed0ba9ded0bde4665e940f3f248e24906285c699c39b0fcb251486a2b773308ad19264863d0a21273c4d8f8006ecb404fabb8da
d449692e76072b6f8cd5b0835e4e00870d92e4cef26d748bb3c6fb35aa7a76f0477f963edf81415acfe9e1128690b5d197ba678c3467874e93d3a40e7ec89bb7
d19102af9f224667b2d9b415609431be4c7ac3b58eedcc8a43ced59c534542b3267b5b3e00655414171e8d7d41e482a3b13a1e57fd4f433329cf782ea2578d64
2c82f61a3c71ea38022c8633d9ade0bab9540f27c304069202248a047fd6da00e540fc35c264e6204c7ac3b58eedcc8a43ced59c534542b3114069b8c658f93e
6ec4f634cd28744336806a8e381bf9a0fd3e697b59bc0ee4e87602cb5d48c30c429a0d335ef01d6eca20b673e26f71b4c4107458e9f0ac10842ddc0dd2fb357b
e2008da10b7e2f85d2f92da1f18b645c8cd5b0835e4e00870d92e4cef26d748bb3c6fb35aa7a76f0477f963edf81415acfe9e1128690b5d163dec0bc17c85de7
2b04872466d7676f4a6a3f8d859eb3554c7ac3b58eedcc8a43ced59c534542b3267b5b3e00655414171e8d7d41e482a3b13a1e57fd4f433329cf782ea2578d64
8d54c771c4c4fb46937fdae4c2e087f98cd5b0835e4e00870d92e4cef26d748bb3c6fb35aa7a76f0477f963edf81415acfe9e1128690b5d163dec0bc17c85de7
ae215ddc27de9ca9488c3314abedf6e1351f8d5af75b0b47194cfd19f0eb88d721632eda18b27f679696dcb72b93e18e440d0cfa79b8970d5754ad27595070ea
07116f7edced2a301503f02df5b47b928cd5b0835e4e00870d92e4cef26d748bb3c6fb35aa7a76f0477f963edf81415acfe9e1128690b5d163dec0bc17c85de7
abb68f64ae5359b50f6e82f217fce82f1d58ec7b723e74ebb2fd36071c565e51f0984ec5f547bad65bdef1a2bd6477462594864780334268b5e061c4371fdc2c
78935356db1ae4cc62d7fc06aea0b62b1d58ec7b723e74ebb2fd36071c565e51f0984ec5f547bad65bdef1a2bd6477462594864780334268b5e061c4371fdc2c
66bed1be32003d85fc3b7de9dc53d5b44c7ac3b58eedcc8a43ced59c534542b3267b5b3e00655414171e8d7d41e482a3b13a1e57fd4f433329cf782ea2578d64
2c82f61a3c71ea3817e22e3abb14ca2cb9540f27c304069236806a8e381bf9a0fd3e697b59bc0ee4e87602cb5d48c30c429a0d335ef01d6eb839d8e1071f9c34
$CDNENCFINISH
.ENDS 2N6845
*$
.SUBCKT CMSH5-60 1 2
$CDNENCSTART
eee8c5c7a2bc4b01f045f303678664e7916da0bae22e8cb0bba041dd67c69ce448ea70148a9ac1670c8926c1ac5057c8ccfcd77bf87ca9dc9a16ea832ee8d31d
79c3da1bf9e98df8979e3ae178f6df39277e5be83af481bc194cfd19f0eb88d721632eda18b27f679696dcb72b93e18e440d0cfa79b8970d5754ad27595070ea
d7072740a938f0e762c9c9f70ecd660f2a7d444cc69bf36a9e4d8a7050ffcedf7ed7f2779041f784700325c3ec3c331c1916387421ad44f3f24784fe7affea1c
4498a58dc1c5eb71dffaca76e3f2776d1ee67dbab82bb125d7faf34f0422ee7c6b7b479582a260dd6bc6966c234537a7d69729743bb29ebd6da43d449138f9c6
$CDNENCFINISH
.ENDS
*$
.SUBCKT Luxeon_III_W 1 2
*C_Luxeon_III_W 1 2 1f
$CDNENCSTART
eee8c5c7a2bc4b01f045f303678664e7916da0bae22e8cb0bba041dd67c69ce448ea70148a9ac1670c8926c1ac5057c8ccfcd77bf87ca9dc9a16ea832ee8d31d
4ff1de747ae07bba85aeeb475a5049be5f18edaf64aecc380df66c002c5a14544c7ac3b58eedcc8a43ced59c534542b3267b5b3e00655414c41dd43e564fc4b5
d7072740a938f0e7614f531b7ca2d4b8a1756c20201dfddc24affd6936b15eca6929135f117e5632759dbc4b888721534c7ac3b58eedcc8add48b6432bc8484c
$CDNENCFINISH
.ENDS
*$
.SUBCKT AND2_BASIC_GEN A B Y PARAMS: VDD=1 VSS=0 VTHRESH=0.5 
$CDNENCSTART
eee8c5c7a2bc4b01f045f303678664e7916da0bae22e8cb0bba041dd67c69ce448ea70148a9ac1670c8926c1ac5057c8ccfcd77bf87ca9dc9a16ea832ee8d31d
f305b7cfa07651615a9037c8c42a602b94aebb18efc1b73c4a0534bc16c6b751d67091752c09698a1541fe9d381cc675621f57e8bf9b586e6da43d449138f9c6
ce312808b0a91175dcf306adebf133c01a6c7500361cb5a45652e10015a645e7e71f71e187584171fd3e697b59bc0ee4e87602cb5d48c30c6714d33798a288f8
bd9831b9881f0b92e8f02e93fcf213a8194cfd19f0eb88d721632eda18b27f679696dcb72b93e18e440d0cfa79b8970d09c1b791e1d8a842a9e889bfe4ce95f1
02f2959404528fbd9ad2dc2e0af5de0e1d58ec7b723e74ebb2fd36071c565e51f0984ec5f547bad65bdef1a2bd6477462594864780334268b5e061c4371fdc2c
$CDNENCFINISH
.ENDS AND2_BASIC_GEN
*$
.SUBCKT INV_BASIC_GEN A  Y PARAMS: VDD=1 VSS=0 VTHRESH=0.5 
$CDNENCSTART
eee8c5c7a2bc4b01f045f303678664e7916da0bae22e8cb0bba041dd67c69ce448ea70148a9ac1670c8926c1ac5057c8ccfcd77bf87ca9dc9a16ea832ee8d31d
f305b7cfa07651615a9037c8c42a602b94aebb18efc1b73c4a0534bc16c6b751d67091752c09698a1541fe9d381cc675040397452ddd04159a16ea832ee8d31d
97a44fd04201403ec4d5e8dbd1cb68c5dbe86c1f70c2d0d36d3b1fd1c0241053da770024498d63d38f2fca7de343acff1c0c742e9af60b215e75efc526c883d5
bd9831b9881f0b92e8f02e93fcf213a8194cfd19f0eb88d721632eda18b27f679696dcb72b93e18e440d0cfa79b8970d09c1b791e1d8a842a9e889bfe4ce95f1
02f2959404528fbd9ad2dc2e0af5de0e1d58ec7b723e74ebb2fd36071c565e51f0984ec5f547bad65bdef1a2bd6477462594864780334268b5e061c4371fdc2c
$CDNENCFINISH
.ENDS INV_BASIC_GEN
*$
.SUBCKT INV_DELAY_BASIC_GEN A  Y PARAMS: VDD=1 VSS=0 VTHRESH=0.5 DELAY=10n FACTOR=1.3
$CDNENCSTART
eee8c5c7a2bc4b01f045f303678664e7916da0bae22e8cb0bba041dd67c69ce448ea70148a9ac1670c8926c1ac5057c8ccfcd77bf87ca9dc9a16ea832ee8d31d
f305b7cfa0765161b7a8d0a5fa27600f87c337a6226f9c259ce2376dcef929e055e2d3dce1717d717ca80a2ba8175d7ecf49909a32f1b23e6da43d449138f9c6
7e21bb79cbca9f8ce0c67063107b52ebdbe86c1f70c2d0d36d3b1fd1c0241053da770024498d63d38f2fca7de343acff1c0c742e9af60b215e75efc526c883d5
bd9831b9881f0b92004c220067cfdabf57e2c5aa808513704c7ac3b58eedcc8a43ced59c534542b3267b5b3e00655414171e8d7d41e482a3301532548280e921
99cb3fa3ad4040ee39d350e60ca2338a782cb5656dfce7c6c1f170d76d24dcfb1d58ec7b723e74ebb2fd36071c565e51f0984ec5f547bad6935bfac095dba6da
f305b7cfa0765161c36180965553170d8da13727b91264449ce2376dcef929e07d4a1829490ab8db9b0e7c0027d2abb9e6efecb6122f9b38d38aff4e12555a5d
97a44fd04201403ec4d5e8dbd1cb68c5dbe86c1f70c2d0d36d3b1fd1c0241053da770024498d63d38f2fca7de343acff1c0c742e9af60b215e75efc526c883d5
8d3568177ac8ace9a0338d780f826fc68cd5b0835e4e00870d92e4cef26d748bb3c6fb35aa7a76f0477f963edf81415acfe9e1128690b5d163dec0bc17c85de7
042d1e8ae349b80f5801d29f353ff6687b0412a2887d48ee4b346a7efa71583eb79468370d9e2d000686de4c27e96438140248d3ea16bbc498cc2146ef77d763
$CDNENCFINISH
.ENDS INV_DELAY_BASIC_GEN
*$
.SUBCKT OR2_BASIC_GEN A B Y PARAMS: VDD=1 VSS=0 VTHRESH=0.5 
$CDNENCSTART
eee8c5c7a2bc4b01f045f303678664e7916da0bae22e8cb0bba041dd67c69ce448ea70148a9ac1670c8926c1ac5057c8ccfcd77bf87ca9dc9a16ea832ee8d31d
f305b7cfa07651615a9037c8c42a602b94aebb18efc1b73c4a0534bc16c6b751d67091752c09698a1541fe9d381cc67513d1669f9b59f9456da43d449138f9c6
ce312808b0a91175dcf306adebf133c01a6c7500361cb5a45652e10015a645e7e71f71e187584171fd3e697b59bc0ee4e87602cb5d48c30c6714d33798a288f8
bd9831b9881f0b92e8f02e93fcf213a8194cfd19f0eb88d721632eda18b27f679696dcb72b93e18e440d0cfa79b8970d09c1b791e1d8a842a9e889bfe4ce95f1
02f2959404528fbd9ad2dc2e0af5de0e1d58ec7b723e74ebb2fd36071c565e51f0984ec5f547bad65bdef1a2bd6477462594864780334268b5e061c4371fdc2c
$CDNENCFINISH
.ENDS OR2_BASIC_GEN
*$
.SUBCKT SSWITCH 1 2 3   4  PARAMS: RON=1 ROFF=1MEG VON=1 VOFF=0
*Connections    + - NC+ NC-
*Parameters: Ron On Resistance in Ohms, Roff Off Resistance in Ohms
* VON On Current in Amps, VOFF Off Current in Amps
$CDNENCSTART
eee8c5c7a2bc4b01f045f303678664e7916da0bae22e8cb0bba041dd67c69ce448ea70148a9ac1670c8926c1ac5057c8ccfcd77bf87ca9dc9a16ea832ee8d31d
0fe197e586e6d4c99bb75429d97bae46bf0bcfd7970c54241d58ec7b723e74ebb2fd36071c565e51f0984ec5f547bad65bdef1a2bd647746fa01db5768816f23
42ab3a9c368d14fff4148093fd23fa22cf069a5624a7d290b5d64e797c7fa3c4a2fb605a6163d6c2e8804da8191a67f59042a21eaa016c8264fbe97d0ddd891b
126312c5248d72f41d58ec7b723e74ebb2fd36071c565e51f0984ec5f547bad65bdef1a2bd647746259486478033426876ac1811ffef7be2870dbf12131055a5
$CDNENCFINISH
.ENDS
*$
.SUBCKT NAND3B A B C OUT
$CDNENCSTART
eee8c5c7a2bc4b01f045f303678664e7916da0bae22e8cb0bba041dd67c69ce448ea70148a9ac1670c8926c1ac5057c8ccfcd77bf87ca9dc9a16ea832ee8d31d
77df028097402cb42a130768201b05fb3871c8c8d459ce412dce1e67bf24de1ee21cf65c37cfe0f98cd5b0835e4e00870d92e4cef26d748b116f3099ebd3d5b8
ce312808b0a911753ada287fd288bc0bdbe86c1f70c2d0d36d3b1fd1c0241053da770024498d63d38f2fca7de343acff1c0c742e9af60b215e75efc526c883d5
49482642e74b34f5d34f4051f53391ce9bc52fa911cb3be78717c5fe44a87ac2194cfd19f0eb88d721632eda18b27f679696dcb72b93e18eca6c8517f953d3c3
0d78d74eb546c18e57e2c5aa808513704c7ac3b58eedcc8a43ced59c534542b3267b5b3e00655414171e8d7d41e482a3b13a1e57fd4f433329cf782ea2578d64
6cb82197f9d1d6b50fa434613f11cb03dbe86c1f70c2d0d36d3b1fd1c0241053da770024498d63d38f2fca7de343acff1c0c742e9af60b215e75efc526c883d5
$CDNENCFINISH
.ENDS
*$
.SUBCKT COMPWDEL 1 2 3  PARAMS: TD=25N
*               + - Out
$CDNENCSTART
eee8c5c7a2bc4b01f045f303678664e7916da0bae22e8cb0bba041dd67c69ce448ea70148a9ac1670c8926c1ac5057c8ccfcd77bf87ca9dc9a16ea832ee8d31d
ad81b3bdbee5b8212a130768201b05fbf3a4615b6920c7c8a00677406fcd5807871fb15cd2636bd4c2356fa0b0fe3ea94c7ac3b58eedcc8add48b6432bc8484c
688507c2e5715d6701b8794aec1ae2083e11559d316a8bc38cd5b0835e4e00870d92e4cef26d748bb3c6fb35aa7a76f0477f963edf81415a2a2ec5080cca0025
af7200756409db2ddbe86c1f70c2d0d36d3b1fd1c0241053da770024498d63d38f2fca7de343acff1c0c742e9af60b21afd057e841598b8d4f63df4f89b37bd2
75ec2bfa367d4be42a130768201b05fbd3838798fb9c31f974c8e810f3d364960c7983ed8c64eeebc2356fa0b0fe3ea94c7ac3b58eedcc8add48b6432bc8484c
$CDNENCFINISH
.ENDS 
*$
.SUBCKT NOR3B A B C OUT
$CDNENCSTART
eee8c5c7a2bc4b01f045f303678664e7916da0bae22e8cb0bba041dd67c69ce448ea70148a9ac1670c8926c1ac5057c8ccfcd77bf87ca9dc9a16ea832ee8d31d
77df028097402cb42a130768201b05fb3871c8c8d459ce412dce1e67bf24de1ecb3c2d6ed7970e4e8cd5b0835e4e00870d92e4cef26d748b116f3099ebd3d5b8
ce312808b0a91175753012d51390c190dbe86c1f70c2d0d36d3b1fd1c0241053da770024498d63d38f2fca7de343acff1c0c742e9af60b215e75efc526c883d5
49482642e74b34f5d34f4051f53391ce9bc52fa911cb3be78717c5fe44a87ac2194cfd19f0eb88d721632eda18b27f679696dcb72b93e18eca6c8517f953d3c3
0d78d74eb546c18e57e2c5aa808513704c7ac3b58eedcc8a43ced59c534542b3267b5b3e00655414171e8d7d41e482a3b13a1e57fd4f433329cf782ea2578d64
6cb82197f9d1d6b50fa434613f11cb03dbe86c1f70c2d0d36d3b1fd1c0241053da770024498d63d38f2fca7de343acff1c0c742e9af60b215e75efc526c883d5
$CDNENCFINISH
.ENDS
*$
.SUBCKT NAND2B A B OUT PARAMS: IC=0
$CDNENCSTART
eee8c5c7a2bc4b01f045f303678664e7916da0bae22e8cb0bba041dd67c69ce448ea70148a9ac1670c8926c1ac5057c8ccfcd77bf87ca9dc9a16ea832ee8d31d
77df028097402cb42a130768201b05fb3871c8c8d459ce412dce1e67bf24de1ee21cf65c37cfe0f98cd5b0835e4e00870d92e4cef26d748b116f3099ebd3d5b8
ce312808b0a91175d34f4051f53391ce9bc52fa911cb3be78717c5fe44a87ac2194cfd19f0eb88d721632eda18b27f679696dcb72b93e18eca6c8517f953d3c3
0d78d74eb546c18e57e2c5aa808513704c7ac3b58eedcc8a43ced59c534542b3267b5b3e00655414171e8d7d41e482a3b13a1e57fd4f433329cf782ea2578d64
6cb82197f9d1d6b50fa434613f11cb038e807cd947ff31cbdbe86c1f70c2d0d36d3b1fd1c0241053da770024498d63d38f2fca7de343acffaa188e393957f755
$CDNENCFINISH
.ENDS
*$
.SUBCKT COMPDELEN NINV INV OUT EN  PARAMS: DELAY=100n
* + - OUT
$CDNENCSTART
eee8c5c7a2bc4b01f045f303678664e7916da0bae22e8cb0bba041dd67c69ce448ea70148a9ac1670c8926c1ac5057c8ccfcd77bf87ca9dc9a16ea832ee8d31d
ad81b3bdbee5b8212a130768201b05fb7da1dc20cb3184eaab21070caeb94315e27ade0e3ca42b3705dd0c3d2727723efd299b02c956d8593a9d49ccbd8e219c
e634d4e8e9534d11194cfd19f0eb88d721632eda18b27f679696dcb72b93e18e440d0cfa79b8970d09c1b791e1d8a8422f0860f9e8e507debf66d6a8656a0128
688507c2e5715d6701b8794aec1ae208b107db127e410a7a842e04cdb46dba6f4c7ac3b58eedcc8a43ced59c534542b3267b5b3e00655414c41dd43e564fc4b5
af7200756409db2ddbe86c1f70c2d0d36d3b1fd1c0241053da770024498d63d38f2fca7de343acff1c0c742e9af60b21afd057e841598b8d4f63df4f89b37bd2
b9a7203589c40ea52151824e6f7f47a052e659019812eb8366c8d6631c315a0dc26bdc67030062bef418b1e658f76aa97b0412a2887d48ee10eef72620a021e2
$CDNENCFINISH
.ENDS
*$
.SUBCKT INVB IN OUT
$CDNENCSTART
eee8c5c7a2bc4b01f045f303678664e7916da0bae22e8cb0bba041dd67c69ce448ea70148a9ac1670c8926c1ac5057c8ccfcd77bf87ca9dc9a16ea832ee8d31d
77df028097402cb42a130768201b05fb3871c8c8d459ce410fe9adac95f59919884e3250ef5610f5a8a5cd93fed6b05fd1fab7b32d82004142ab77d1acbfe47c
77c6fe7b780d6255983102e0c9e844dddbe86c1f70c2d0d36d3b1fd1c0241053da770024498d63d38f2fca7de343acff1c0c742e9af60b215e75efc526c883d5
0d78d74eb546c18e57e2c5aa808513704c7ac3b58eedcc8a43ced59c534542b3267b5b3e00655414171e8d7d41e482a3b13a1e57fd4f433329cf782ea2578d64
6cb82197f9d1d6b50fa434613f11cb03dbe86c1f70c2d0d36d3b1fd1c0241053da770024498d63d38f2fca7de343acff1c0c742e9af60b215e75efc526c883d5
$CDNENCFINISH
.ENDS
*$
.SUBCKT IADJCLAMP 1 2
* Terminals A K
$CDNENCSTART
eee8c5c7a2bc4b01f045f303678664e7916da0bae22e8cb0bba041dd67c69ce448ea70148a9ac1670c8926c1ac5057c8ccfcd77bf87ca9dc9a16ea832ee8d31d
b3390a098a7d8706dd5b3b801a233a5efd3e697b59bc0ee4e87602cb5d48c30c429a0d335ef01d6eca20b673e26f71b4c4107458e9f0ac10842ddc0dd2fb357b
6557d75506a83a160f1911d0ac010dfcfd3e697b59bc0ee4e87602cb5d48c30c429a0d335ef01d6eca20b673e26f71b4c4107458e9f0ac10842ddc0dd2fb357b
dcbca937fde92ea91f950d91b24c30927b0412a2887d48ee4b346a7efa71583eb79468370d9e2d000686de4c27e96438140248d3ea16bbc498cc2146ef77d763
d7072740a938f0e78a869bd0a768cf16aa31b2081c805e6b03bb7f31b58a031787d9c443a786c0e02a84ed1ea9f739c85b62a55370f67f20ca23d475560f5571
166face458955e1760a548d4abd55d997b0412a2887d48ee4b346a7efa71583eb79468370d9e2d000686de4c27e96438140248d3ea16bbc498cc2146ef77d763
d7072740a938f0e7d199fda1aef543a0a39a422fdd0bfc305ed3c84f3324f868b61506ab4770b7dee870f3c30e600ed61d58ec7b723e74eb1a8c324d40cd902d
$CDNENCFINISH
.ENDS
*$
.SUBCKT D2Ag in out 
$CDNENCSTART
eee8c5c7a2bc4b01f045f303678664e7916da0bae22e8cb0bba041dd67c69ce448ea70148a9ac1670c8926c1ac5057c8ccfcd77bf87ca9dc9a16ea832ee8d31d
155c4ccaee2f538c6408f9d2cfceaedb4c7ac3b58eedcc8a43ced59c534542b3267b5b3e00655414171e8d7d41e482a3b13a1e57fd4f433329cf782ea2578d64
$CDNENCFINISH
.ENDS
*$

